Circuit: * C:\Users\asudhakar\Desktop\circuits-lab-master (1)\circuits-lab-master\lab9\datawork\ltspice\exp2a.asc

WARNING: Less than two connections to node VOUT.  This node is used by V§IOUT.
.step v2=2.5

Date: Wed Apr 22 12:26:01 2020
Total elapsed time: 0.114 seconds.

tnom = 27
temp = 27
method = trap
totiter = 483
traniter = 0
tranpoints = 0
accept = 0
rejected = 0
matrix size = 43
fillins = 11
solver = Normal
Matrix Compiler1: 1.95 KB object code size  0.6/0.3/[0.3]
Matrix Compiler2: 3.46 KB object code size  0.4/0.5/[0.3]

