Circuit: * C:\Users\asudhakar\Desktop\circuits-lab-master (1)\circuits-lab-master\lab9\datawork\ltspice\exp2b.asc

.step v2=2.5

Date: Wed Apr 22 12:25:48 2020
Total elapsed time: 0.341 seconds.

tnom = 27
temp = 27
method = trap
totiter = 10023
traniter = 0
tranpoints = 0
accept = 0
rejected = 0
matrix size = 44
fillins = 3
solver = Normal
Thread vector: 6.3/4.9[2] 0.0/0.0[0] 0.5/1.4[1] 0.2/1.8[1]  2592/500
Matrix Compiler1: 1.59 KB object code size  0.4/0.3/[0.2]
Matrix Compiler2: 3.34 KB object code size  0.3/0.5/[0.2]

