Circuit: * C:\users\manu\Desktop\Classes\S2020\circuits-lab\lab9\datawork\ltspice\exp2c.asc


Date: Wed Apr 22 13:37:46 2020
Total elapsed time: 0.118 seconds.

tnom = 27
temp = 27
method = trap
totiter = 8040
traniter = 0
tranpoints = 0
accept = 0
rejected = 0
matrix size = 46
fillins = 3
solver = Normal
Thread vector: 7.5/5.6[2] 0.0/0.0[0] 0.7/1.5[1] 0.1/2.2[1]  2592/500
Matrix Compiler1: off  [0.4]/0.5/1.0
Matrix Compiler2: 3.49 KB object code size  0.3/0.8/[0.3]

