Circuit: * C:\users\manu\Desktop\Classes\S2020\circuits-lab\lab9\datawork\ltspice\exp2a.asc

WARNING: Less than two connections to node VOUT.  This node is used by V§IOUT.

Date: Wed Apr 22 13:46:51 2020
Total elapsed time: 0.021 seconds.

tnom = 27
temp = 27
method = trap
totiter = 236
traniter = 0
tranpoints = 0
accept = 0
rejected = 0
matrix size = 43
fillins = 11
solver = Normal
Matrix Compiler1: 1.95 KB object code size  0.4/0.3/[0.2]
Matrix Compiler2: 3.46 KB object code size  0.3/0.4/[0.2]

