Circuit: * Z:\home\shashank\repos\circuits-lab\lab4\datawork\exp3.asc

.step ix=1e-06
.step ix=1e-05
.step ix=0.0001

Date: Sat Mar 21 23:55:01 2020
Total elapsed time: 0.048 seconds.

tnom = 27
temp = 27
method = trap
totiter = 422
traniter = 0
tranpoints = 0
accept = 0
rejected = 0
matrix size = 35
fillins = 0
solver = Normal
Matrix Compiler1: 1.76 KB object code size  0.3/0.2/[0.2]
Matrix Compiler2: 2.48 KB object code size  0.3/0.3/[0.2]

